Version 4
SHEET 1 1736 680
WIRE 848 -128 784 -128
WIRE 848 -112 848 -128
WIRE 848 0 848 -32
WIRE 1008 0 848 0
WIRE 784 32 784 -128
WIRE 848 32 848 0
WIRE 112 48 -16 48
WIRE 352 48 192 48
WIRE 496 48 352 48
WIRE 752 48 656 48
WIRE 496 80 496 48
WIRE 752 80 496 80
WIRE -16 144 -16 48
WIRE 1216 176 1184 176
WIRE 1376 176 1296 176
WIRE 1376 192 1376 176
WIRE 352 208 352 48
WIRE 1184 224 1184 176
WIRE 1184 224 1152 224
WIRE 784 272 784 96
WIRE 848 272 848 96
WIRE 848 272 784 272
WIRE 1184 288 1184 224
WIRE 1184 384 1184 352
WIRE 1376 384 1376 272
WIRE 1376 384 1184 384
WIRE 784 400 784 272
WIRE -16 432 -16 224
WIRE -16 432 -32 432
WIRE 352 432 352 288
WIRE 352 432 -16 432
WIRE -32 496 -32 432
FLAG -32 496 0
FLAG 1376 384 0
FLAG 784 400 0
FLAG 352 48 VBatterie
FLAG 1008 0 PowerOffSignal
FLAG 1152 224 Reference
FLAG 1376 176 5V
FLAG 784 -128 5V
FLAG 656 48 Reference
SYMBOL voltage -16 128 R0
WINDOW 123 0 0 Left 0
WINDOW 39 0 0 Left 0
SYMATTR InstName Batterie
SYMATTR Value ""
SYMBOL zener 1200 352 R180
WINDOW 0 24 64 Left 2
WINDOW 3 24 0 Left 2
SYMATTR InstName D1
SYMATTR Value 1N750
SYMBOL res 208 32 R90
WINDOW 0 0 56 VBottom 2
WINDOW 3 32 56 VTop 2
SYMATTR InstName R1
SYMATTR Value 100k
SYMBOL res 368 304 R180
WINDOW 0 36 76 Left 2
WINDOW 3 36 40 Left 2
SYMATTR InstName R2
SYMATTR Value 69.64k
SYMBOL voltage 1376 176 R0
WINDOW 123 0 0 Left 0
WINDOW 39 0 0 Left 0
SYMATTR InstName V2
SYMATTR Value 5
SYMBOL res 1312 160 R90
WINDOW 0 0 56 VBottom 2
WINDOW 3 32 56 VTop 2
SYMATTR InstName R3
SYMATTR Value 47
SYMBOL AutoGenerated\\LM311 784 64 R0
SYMATTR InstName U2
SYMBOL res 832 -128 R0
SYMATTR InstName R4
SYMATTR Value 100
TEXT 1168 -160 Left 2 !.inc ./LM311.sub
TEXT -52 520 Left 2 !.dc Batterie 12 10 0.01
